data_Al-scu-1x1x1_gopt-pos-1_st439.xyz
_audit_creation_date              2017-04-11
_audit_creation_method            'Materials Studio'
_symmetry_space_group_name_H-M    'P1'
_symmetry_Int_Tables_number       1
_symmetry_cell_setting            triclinic
loop_
_symmetry_equiv_pos_as_xyz
  x,y,z
_cell_length_a                    7.6440
_cell_length_b                    31.9300
_cell_length_c                    32.9860
_cell_angle_alpha                 90.0000
_cell_angle_beta                  90.0000
_cell_angle_gamma                 90.0000
loop_
_atom_site_type_symbol
_atom_site_fract_x
_atom_site_fract_y
_atom_site_fract_z
Al    0.51959   0.09571   0.15954 
O     0.55817   0.03796   0.16214 
O     0.43302   0.10069   0.21222 
O     0.42524   0.18533   0.21239 
O     0.48342   0.15414   0.15223 
C     0.41826   0.18314   0.17397 
C     0.32426   0.21711   0.15203 
C     0.31677   0.21651   0.10963 
H     0.38303   0.19110   0.09388 
C     0.23735   0.21198   0.02026 
H     0.22456   0.18181   0.03546 
O     0.60791   0.09967   0.10647 
O     0.56719   0.03599   0.07762 
C     0.60672   0.07464   0.07659 
C     0.64860   0.09445   0.03693 
C     0.69187   0.13707   0.03702 
H     0.70730   0.15236   0.06626 
O     0.23228   0.10590   0.32405 
O     0.26040   0.14824   0.26987 
C     0.17566   0.13442   0.30018 
C     0.00191   0.15397   0.30957 
H     0.93704   0.16596   0.28242 
H     0.91562   0.13239   0.32583 
H     0.02795   0.18071   0.32978 
O     0.26541   0.01963   0.11818 
O     0.28552   0.08736   0.13789 
C     0.20493   0.05690   0.12139 
C     0.02849   0.06531   0.10327 
H     0.95297   0.03638   0.09995 
H     0.95498   0.08824   0.12112 
H     0.04927   0.07863   0.07286 
H     0.39293   0.07492   0.22446 
H     0.67337   0.03201   0.17292 
Al    0.02217   0.59518   0.15997 
O     0.05853   0.53748   0.16159 
O     0.94008   0.59973   0.21374 
O     0.93221   0.68561   0.21236 
O     0.98605   0.65410   0.15204 
C     0.92354   0.68336   0.17395 
C     0.82970   0.71754   0.15204 
C     0.82149   0.71692   0.10961 
H     0.88722   0.69142   0.09384 
C     0.73977   0.71213   0.02017 
H     0.72797   0.68198   0.03548 
O     0.10728   0.59836   0.10642 
O     0.06663   0.53540   0.07623 
C     0.10556   0.57407   0.07599 
C     0.14757   0.59443   0.03662 
C     0.19078   0.63703   0.03698 
H     0.20655   0.65212   0.06633 
O     0.73416   0.60629   0.32390 
O     0.76464   0.64811   0.26920 
C     0.67858   0.63442   0.29959 
C     0.50409   0.65371   0.30844 
H     0.44409   0.66754   0.28152 
H     0.41487   0.63112   0.32246 
H     0.52696   0.67891   0.33061 
O     0.76646   0.52070   0.11792 
O     0.78444   0.58755   0.14024 
C     0.70473   0.55748   0.12244 
C     0.52807   0.56621   0.10461 
H     0.45649   0.53710   0.09896 
H     0.45063   0.58706   0.12390 
H     0.54838   0.58220   0.07542 
H     0.81710   0.59270   0.21579 
H     1.16604   0.52995   0.17525 
Al    0.47156   0.90317   0.16019 
O     0.43350   0.96061   0.16161 
O     0.55846   0.90016   0.21363 
O     0.57472   0.81440   0.21383 
O     0.50077   0.84399   0.15384 
C     0.57041   0.81535   0.17533 
C     0.65560   0.78038   0.15272 
C     0.65119   0.78015   0.11024 
H     0.58018   0.80511   0.09491 
C     0.74882   0.78739   0.02181 
H     0.75232   0.81680   0.03860 
O     0.39138   0.89971   0.10625 
O     0.44145   0.96256   0.07642 
C     0.39855   0.92413   0.07593 
C     0.35727   0.90433   0.03629 
C     0.31810   0.86156   0.03609 
H     0.31564   0.84542   0.06511 
C     0.19831   0.77317   0.03383 
H     0.15134   0.79099   0.05982 
C     0.31856   0.76955   0.96664 
H     0.37708   0.78438   0.94023 
O     0.76541   0.89587   0.32429 
O     0.74031   0.85393   0.26963 
C     0.82362   0.86772   0.30034 
C     0.99803   0.84857   0.30979 
H     0.06035   0.83518   0.28294 
H     0.08579   0.87095   0.32453 
H     0.97366   0.82297   0.33147 
O     0.73323   0.97817   0.12032 
O     0.70895   0.91052   0.14013 
C     0.79119   0.94077   0.12333 
C     0.96617   0.93175   0.10473 
H     0.04371   0.96040   0.10162 
H     0.03927   0.90825   0.12193 
H     0.94223   0.91912   0.07417 
H     0.68153   0.90720   0.21480 
H     0.32080   0.96750   0.17321 
Al    0.96967   0.40299   0.15992 
O     0.93362   0.46044   0.16030 
O     0.05130   0.39999   0.21364 
O     0.06577   0.31299   0.21383 
O     0.00030   0.34392   0.15382 
C     0.06495   0.31462   0.17530 
C     0.14980   0.27976   0.15271 
C     0.14586   0.27965   0.11026 
H     0.07520   0.30466   0.09491 
C     0.24631   0.28730   0.02225 
H     0.24888   0.31661   0.03922 
O     0.89122   0.39936   0.10601 
O     0.93387   0.46258   0.07624 
C     0.89445   0.42396   0.07577 
C     0.85316   0.40419   0.03613 
C     0.81442   0.36140   0.03577 
H     0.81087   0.34519   0.06476 
C     0.69436   0.27315   0.03310 
H     0.64500   0.29105   0.05880 
C     0.81993   0.26936   0.96643 
H     0.88019   0.28413   0.94020 
O     0.25807   0.39394   0.32402 
O     0.23338   0.35367   0.26817 
C     0.31673   0.36666   0.29925 
C     0.49165   0.34770   0.30831 
H     0.55070   0.33298   0.28173 
H     0.58130   0.37076   0.32146 
H     0.46980   0.32336   0.33142 
O     0.23221   0.47736   0.11828 
O     0.20844   0.41037   0.14019 
C     0.29057   0.44016   0.12257 
C     0.46627   0.43073   0.10450 
H     0.54012   0.45953   0.09897 
H     0.54258   0.40945   0.12358 
H     0.44402   0.41507   0.07521 
H     0.17441   0.40695   0.21555 
H    -0.16638   0.46942   0.17599 
Al    0.47067   0.09697   0.34078 
O     0.43440   0.03937   0.33834 
O     0.55762   0.10160   0.28796 
O     0.56619   0.18569   0.28738 
O     0.50011   0.15568   0.34772 
C     0.56545   0.18459   0.32588 
C     0.65054   0.21967   0.34815 
C     0.64701   0.22008   0.39061 
H     0.57677   0.19514   0.40614 
C     0.74816   0.21303   0.47864 
H     0.75166   0.18365   0.46181 
O     0.38382   0.10000   0.39408 
O     0.44175   0.03743   0.42368 
C     0.39567   0.07564   0.42440 
C     0.35651   0.09530   0.46422 
C     0.31720   0.13807   0.46450 
H     0.31310   0.15415   0.43545 
C     0.19620   0.22633   0.46686 
H     0.14825   0.20836   0.44106 
C     0.32001   0.23040   0.53365 
H     0.38026   0.21578   0.55996 
O     0.75890   0.10450   0.17621 
O     0.73237   0.14790   0.22991 
C     0.81641   0.13325   0.19976 
C     0.99134   0.15199   0.19018 
H     0.05343   0.16578   0.21686 
H     0.07887   0.12922   0.17591 
H     0.96815   0.17718   0.16800 
O     0.73371   0.02111   0.37987 
O     0.70669   0.08932   0.36210 
C     0.79030   0.05881   0.37783 
C     0.96541   0.06765   0.39645 
H     0.04216   0.03891   0.39977 
H     0.03896   0.09087   0.37898 
H     0.94226   0.08071   0.42686 
H     0.63651   0.07984   0.27914 
H     0.31862   0.03306   0.32809 
Al    0.97476   0.59732   0.34072 
O     0.93493   0.53963   0.33742 
O     0.06660   0.60162   0.28831 
O     0.07456   0.68568   0.28756 
O     0.00850   0.65591   0.34789 
C     0.07796   0.68428   0.32604 
C     0.17205   0.71823   0.34804 
C     0.17960   0.71721   0.39046 
H     0.11382   0.69158   0.40601 
C     0.26305   0.71196   0.47983 
H     0.27648   0.68191   0.46440 
O     0.88296   0.60020   0.39348 
O     0.94182   0.53739   0.42219 
C     0.89391   0.57544   0.42348 
C     0.85385   0.59489   0.46341 
C     0.81070   0.63749   0.46360 
H     0.79465   0.65288   0.43442 
O     0.25930   0.60434   0.17635 
O     0.23452   0.64802   0.22965 
C     0.31698   0.63358   0.19934 
C     0.48930   0.65326   0.18886 
H     0.55926   0.66416   0.21582 
H     0.57168   0.63238   0.17075 
H     0.46022   0.68097   0.17017 
O     0.23428   0.52064   0.37790 
O     0.20651   0.58959   0.36385 
C     0.29096   0.55843   0.37780 
C     0.46677   0.56644   0.39639 
H     0.54522   0.53779   0.39774 
H     0.53789   0.59101   0.38012 
H     0.44479   0.57741   0.42762 
H     0.06524   0.57457   0.27498 
H    -0.18451   0.53436   0.32888 
Al    0.52338   0.90433   0.34064 
O     0.56129   0.96202   0.33800 
O     0.43388   0.89953   0.28814 
O     0.43374   0.81467   0.28763 
O     0.49163   0.84578   0.34777 
C     0.43061   0.81626   0.32610 
C     0.34587   0.78102   0.34808 
C     0.34965   0.78048   0.39049 
H     0.41979   0.80537   0.40612 
C     0.25031   0.78733   0.47826 
H     0.24527   0.81668   0.46141 
O     0.60941   0.90042   0.39399 
O     0.56585   0.96374   0.42349 
C     0.60452   0.92504   0.42422 
C     0.64327   0.90497   0.46395 
C     0.68203   0.86212   0.46403 
H     0.68610   0.84618   0.43491 
C     0.80150   0.77330   0.46654 
H     0.84759   0.79099   0.44037 
C     0.68215   0.76991   0.53379 
H     0.62350   0.78477   0.56018 
O     0.23379   0.89403   0.17628 
O     0.26686   0.85149   0.23009 
C     0.18049   0.86493   0.19997 
C     0.00920   0.84421   0.19041 
H     0.94026   0.83407   0.21777 
H     0.92526   0.86423   0.17178 
H     0.03958   0.81597   0.17259 
O     0.26655   0.98010   0.38182 
O     0.29058   0.91241   0.36246 
C     0.20803   0.94263   0.37878 
C     0.03237   0.93381   0.39715 
H     0.95593   0.96258   0.40057 
H     0.95906   0.91078   0.37938 
H     0.05444   0.92052   0.42752 
H     0.42936   0.92631   0.27437 
H     0.67943   0.96774   0.32890 
Al    0.01780   0.40357   0.34027 
O     0.05850   0.46107   0.33643 
O     0.92551   0.39824   0.28802 
O     0.92527   0.31432   0.28794 
O     0.98243   0.34549   0.34804 
C     0.91774   0.31641   0.32639 
C     0.82427   0.28244   0.34838 
C     0.81708   0.28331   0.39080 
H     0.88296   0.30890   0.40638 
C     0.73742   0.28835   0.48030 
H     0.72417   0.31845   0.46496 
O     0.10794   0.40024   0.39334 
O     0.06643   0.46388   0.42205 
C     0.10493   0.42516   0.42329 
C     0.14568   0.40528   0.46306 
C     0.18857   0.36261   0.46296 
H     0.20423   0.34735   0.43370 
O     0.73234   0.39377   0.17631 
O     0.75968   0.35012   0.22962 
C     0.67646   0.36430   0.19925 
C     0.50528   0.34397   0.18885 
H     0.43452   0.33372   0.21595 
H     0.42278   0.36421   0.17012 
H     0.53618   0.31576   0.17102 
O     0.76578   0.48084   0.37993 
O     0.78526   0.41251   0.36228 
C     0.70460   0.44350   0.37772 
C     0.52712   0.43582   0.39558 
H     0.44986   0.46467   0.39684 
H     0.45614   0.41153   0.37891 
H     0.54635   0.42467   0.42685 
H     0.92046   0.42507   0.27432 
H     1.17641   0.46636   0.32687 
Al    0.47309   0.90442   0.84043 
O     0.44077   0.96216   0.83835 
O     0.55765   0.90002   0.78708 
O     0.56756   0.81445   0.78766 
O     0.50846   0.84560   0.84789 
C     0.57405   0.81663   0.82612 
C     0.66902   0.78263   0.84801 
C     0.67829   0.78338   0.89042 
H     0.61301   0.80895   0.90620 
C     0.76203   0.78832   0.97980 
H     0.77393   0.81846   0.96448 
O     0.38459   0.90044   0.89369 
O     0.43355   0.96338   0.92352 
C     0.39078   0.92492   0.92400 
C     0.35071   0.90489   0.96364 
C     0.30788   0.86227   0.96364 
H     0.29111   0.84700   0.93443 
O     0.76572   0.89375   0.67609 
O     0.73455   0.85189   0.73069 
C     0.82080   0.86549   0.70032 
C     0.99451   0.84586   0.69135 
H     0.05550   0.83238   0.71831 
H     0.08372   0.86809   0.67678 
H     0.97002   0.82033   0.66961 
O     0.73333   0.97944   0.88212 
O     0.70847   0.91213   0.86163 
C     0.79131   0.94211   0.87862 
C     0.96686   0.93281   0.89676 
H     0.04261   0.96155   0.90114 
H     0.04105   0.91051   0.87833 
H     0.94462   0.91838   0.92664 
H     0.67331   0.91169   0.78306 
H     0.33181   0.96976   0.82531 
Al    0.97999   0.40439   0.84068 
O     0.94261   0.46208   0.83830 
O     0.06520   0.39981   0.78770 
O     0.07543   0.31459   0.78780 
O     0.01631   0.34578   0.84792 
C     0.08206   0.31681   0.82620 
C     0.17609   0.28282   0.84827 
C     0.18313   0.28365   0.89070 
H     0.11660   0.30915   0.90628 
C     0.26173   0.28844   0.98030 
H     0.27444   0.31863   0.96510 
O     0.89232   0.40037   0.89385 
O     0.93322   0.46370   0.92356 
C     0.89356   0.42504   0.92403 
C     0.85075   0.40490   0.96348 
C     0.80832   0.36225   0.96327 
H     0.79369   0.34697   0.93400 
O     0.26885   0.39410   0.67594 
O     0.24116   0.35200   0.73039 
C     0.32554   0.36571   0.69989 
C     0.49956   0.34625   0.69061 
H     0.56253   0.33345   0.71767 
H     0.58716   0.36826   0.67529 
H     0.47442   0.32015   0.66957 
O     0.23418   0.47983   0.88214 
O     0.21522   0.41241   0.86184 
C     0.29531   0.44275   0.87880 
C     0.47158   0.43426   0.89694 
H     0.54627   0.46322   0.90081 
H     0.54612   0.41176   0.87881 
H     0.45040   0.42035   0.92709 
H     0.15363   0.41961   0.77942 
H    -0.17032   0.46843   0.82653 
Al    0.52988   0.09677   0.84092 
O     0.56648   0.03936   0.83975 
O     0.44259   0.10011   0.78768 
O     0.43412   0.18571   0.78747 
O     0.49987   0.15582   0.84790 
C     0.43505   0.18476   0.82598 
C     0.35017   0.22002   0.84810 
C     0.35384   0.22050   0.89054 
H     0.42442   0.19563   0.90609 
C     0.25283   0.21311   0.97833 
H     0.25017   0.18381   0.96138 
O     0.61558   0.10003   0.89425 
O     0.55821   0.03734   0.92386 
C     0.60475   0.07554   0.92449 
C     0.64527   0.09507   0.96429 
C     0.68491   0.13781   0.96459 
H     0.68859   0.15397   0.93558 
C     0.80536   0.22609   0.96711 
H     0.85458   0.20819   0.94140 
C     0.67986   0.22989   0.03378 
H     0.61957   0.21511   0.06001 
O     0.24090   0.10632   0.67613 
O     0.26617   0.14769   0.73140 
C     0.18289   0.13412   0.70049 
C     0.00823   0.15311   0.69121 
H     0.94734   0.16719   0.71788 
H     0.91982   0.13026   0.67731 
H     0.03123   0.17800   0.66871 
O     0.26605   0.02124   0.88003 
O     0.29246   0.08940   0.86184 
C     0.20895   0.05880   0.87772 
C     0.03340   0.06759   0.89612 
H     0.95715   0.03878   0.89949 
H     0.95945   0.09065   0.87854 
H     0.05595   0.08080   0.92651 
H     0.31892   0.09364   0.78638 
H     0.67543   0.03181   0.82671 
Al    0.02738   0.59673   0.84013 
O     0.06694   0.53941   0.83962 
O     0.94149   0.59968   0.78652 
O     0.92505   0.68562   0.78617 
O     0.99342   0.65567   0.84636 
C     0.92721   0.68458   0.82470 
C     0.84289   0.71974   0.84723 
C     0.84839   0.72012   0.88970 
H     0.91947   0.69517   0.90501 
C     0.75297   0.71306   0.97816 
H     0.74950   0.68365   0.96139 
O     0.10807   0.60042   0.89402 
O     0.05831   0.53745   0.92377 
C     0.10146   0.57586   0.92425 
C     0.14296   0.59547   0.96398 
C     0.18254   0.63821   0.96450 
H     0.18573   0.65454   0.93558 
C     0.30332   0.72631   0.96719 
H     0.35029   0.70851   0.94119 
C     0.18310   0.72992   0.03438 
H     0.12470   0.71509   0.06081 
O     0.73432   0.60417   0.67573 
O     0.75945   0.64603   0.73045 
C     0.67605   0.63225   0.69972 
C     0.50140   0.65131   0.69031 
H     0.43999   0.66523   0.71704 
H     0.41306   0.62865   0.67613 
H     0.52504   0.67647   0.66810 
O     0.76632   0.52128   0.87992 
O     0.79001   0.58898   0.86001 
C     0.70783   0.55862   0.87671 
C     0.53208   0.56755   0.89497 
H     0.45510   0.53884   0.89823 
H     0.45894   0.59080   0.87748 
H     0.55469   0.58051   0.92546 
H     0.81878   0.59228   0.78518 
H     1.17807   0.53228   0.82742 
Al    0.52545   0.90279   0.65951 
O     0.56480   0.96047   0.66250 
O     0.43375   0.89818   0.71183 
O     0.42536   0.81433   0.71258 
O     0.49168   0.84416   0.65225 
C     0.42217   0.81579   0.67408 
C     0.32783   0.78187   0.65206 
C     0.32034   0.78289   0.60964 
H     0.38611   0.80855   0.59413 
C     0.23713   0.78823   0.52024 
H     0.22371   0.81828   0.53566 
O     0.61636   0.89981   0.60658 
O     0.55829   0.96262   0.57775 
C     0.60550   0.92452   0.57653 
C     0.64593   0.90504   0.53663 
C     0.68922   0.86246   0.53646 
H     0.70528   0.84708   0.56563 
O     0.23512   0.89580   0.82357 
O     0.26467   0.85198   0.77045 
C     0.17957   0.86654   0.80035 
C     0.00615   0.84707   0.81016 
H     0.94094   0.83452   0.78326 
H     0.92014   0.86880   0.82634 
H     0.03271   0.82067   0.83076 
O     0.26548   0.97919   0.62190 
O     0.29253   0.91050   0.63733 
C     0.20861   0.94145   0.62273 
C     0.03308   0.93321   0.60410 
H     0.95458   0.96184   0.60247 
H     0.96172   0.90877   0.62046 
H     0.05554   0.92206   0.57294 
H     0.41686   0.92515   0.72470 
H     0.68377   0.96589   0.67125 
Al    0.02909   0.40295   0.65946 
O     0.06608   0.46058   0.66187 
O     0.94109   0.39839   0.71209 
O     0.93364   0.31423   0.71373 
O     0.99990   0.34432   0.65358 
C     0.93414   0.31536   0.67525 
C     0.84915   0.28036   0.65287 
C     0.85313   0.28015   0.61041 
H     0.92358   0.30515   0.59503 
C     0.75272   0.28743   0.52226 
H     0.74933   0.31682   0.53909 
O     0.11595   0.39990   0.60602 
O     0.05811   0.46246   0.57641 
C     0.10387   0.42421   0.57567 
C     0.14263   0.40458   0.53578 
C     0.18207   0.36183   0.53541 
H     0.18648   0.34570   0.56442 
C     0.30399   0.27364   0.53293 
H     0.35204   0.29162   0.55871 
C     0.18026   0.26958   0.46613 
H     0.12014   0.28421   0.43979 
O     0.74173   0.39565   0.82392 
O     0.76967   0.35208   0.77055 
C     0.68486   0.36672   0.80049 
C     0.51032   0.34776   0.81011 
H     0.44680   0.33467   0.78325 
H     0.42377   0.37012   0.82528 
H     0.53448   0.32194   0.83152 
O     0.76598   0.47877   0.62017 
O     0.79392   0.41055   0.63774 
C     0.70990   0.44100   0.62212 
C     0.53455   0.43214   0.60363 
H     0.45715   0.46082   0.60062 
H     0.46176   0.40866   0.62093 
H     0.55751   0.41944   0.57305 
H     0.90657   0.42473   0.72410 
H     1.18404   0.46655   0.67088 
Al    0.48042   0.09636   0.65966 
O     0.43693   0.03897   0.66243 
O     0.56726   0.10041   0.71246 
O     0.57472   0.18533   0.71253 
O     0.51792   0.15442   0.65223 
C     0.58216   0.18344   0.67409 
C     0.67533   0.21762   0.65230 
C     0.68294   0.21696   0.60989 
H     0.61710   0.19145   0.59418 
C     0.76341   0.21212   0.52059 
H     0.77686   0.18203   0.53591 
O     0.39166   0.09992   0.60652 
O     0.43349   0.03623   0.57783 
C     0.39464   0.07491   0.57662 
C     0.35357   0.09474   0.53688 
C     0.31093   0.13741   0.53692 
H     0.29544   0.15272   0.56615 
O     0.76696   0.10582   0.82397 
O     0.73914   0.14826   0.76999 
C     0.82282   0.13480   0.80054 
C     0.99374   0.15541   0.81065 
H     0.06595   0.16468   0.78344 
H     0.07494   0.13581   0.83032 
H     0.96229   0.18427   0.82742 
O     0.73376   0.01923   0.62006 
O     0.71312   0.08747   0.63787 
C     0.79450   0.05658   0.62245 
C     0.97181   0.06445   0.60457 
H     0.04899   0.03560   0.60304 
H     0.04291   0.08860   0.62139 
H     0.95236   0.07585   0.57339 
H     0.56351   0.07355   0.72607 
H     0.31811   0.03381   0.67127 
Al    0.97602   0.59562   0.65939 
O     0.93573   0.53792   0.66200 
O     0.06585   0.60025   0.71193 
O     0.06618   0.68530   0.71239 
O     0.00854   0.65419   0.65221 
C     0.06941   0.68372   0.67391 
C     0.15411   0.71901   0.65195 
C     0.15016   0.71964   0.60953 
H     0.07998   0.69476   0.59387 
C     0.24983   0.71285   0.52181 
H     0.25494   0.68348   0.53866 
O     0.89040   0.59951   0.60602 
O     0.93390   0.53615   0.57658 
C     0.89580   0.57488   0.57581 
C     0.85678   0.59494   0.53608 
C     0.81819   0.63781   0.53603 
H     0.81409   0.65373   0.56517 
C     0.69901   0.72666   0.53356 
H     0.65299   0.70898   0.55975 
C     0.81831   0.73007   0.46631 
H     0.87697   0.71520   0.43992 
O     0.26525   0.60611   0.82390 
O     0.23278   0.64843   0.76990 
C     0.31860   0.63515   0.80021 
C     0.48948   0.65608   0.80976 
H     0.56023   0.66525   0.78230 
H     0.57212   0.63664   0.82926 
H     0.45834   0.68500   0.82646 
O     0.23286   0.51965   0.61840 
O     0.20896   0.58741   0.63763 
C     0.29153   0.55712   0.62140 
C     0.46747   0.56585   0.60314 
H     0.54437   0.53709   0.60015 
H     0.54005   0.58919   0.62067 
H     0.44565   0.57867   0.57256 
H     0.06378   0.57354   0.72584 
H    -0.18369   0.53251   0.67040 
Al    0.49612   0.14296   0.24981 
Al    0.00235   0.64320   0.25046 
Al    0.50053   0.85746   0.25086 
Al   -0.00729   0.35655   0.25052 
Al    0.49766   0.85693   0.74982 
Al    0.00485   0.35722   0.75029 
Al    0.50482   0.14277   0.74989 
Al   -0.00070   0.64248   0.74919 
Al    0.49883  -0.00081   0.12115 
Al   -0.00093   0.49908   0.12028 
Al    0.49968   0.00062   0.37918 
Al    0.00043   0.50038   0.37760 
Al    0.49990   0.00042   0.87956 
Al    0.00061   0.50049   0.87953 
Al    0.49917  -0.00047   0.62212 
Al   -0.00072   0.49926   0.62097 
C     0.23002   0.24813   0.08795 
C     0.23438   0.24905   0.04314 
C     0.24002   0.24867   0.17381 
H     0.24490   0.24909   0.20676 
C     0.73460   0.74853   0.08788 
C     0.73784   0.74928   0.04298 
C     0.74617   0.74926   0.17380 
H     0.75161   0.74973   0.20675 
C     0.73068   0.25181   0.41272 
C     0.73536   0.25115   0.45756 
C     0.74045   0.25065   0.32681 
H     0.74529   0.25000   0.29385 
C     0.26630   0.74863   0.41243 
C     0.26296   0.74920   0.45721 
C     0.25615   0.75007   0.32659 
H     0.25143   0.75085   0.29365 
C     0.76598   0.75186   0.91210 
C     0.76372   0.75118   0.95699 
C     0.75211   0.75085   0.82620 
H     0.74589   0.75031   0.79324 
C     0.26962   0.25216   0.91262 
C     0.26485   0.25136   0.95744 
C     0.26028   0.25103   0.82674 
H     0.25540   0.25035   0.79378 
C     0.23360   0.75152   0.58762 
C     0.23705   0.75099   0.54285 
C     0.24375   0.74998   0.67348 
H     0.24850   0.74916   0.70645 
C     0.76947   0.24855   0.58814 
C     0.76532   0.24930   0.54331 
C     0.75905   0.24929   0.67405 
H     0.75397   0.24979   0.70701 
C     0.62695   0.07286   0.00050 
H     0.58997   0.03995   0.00033 
C     0.70868   0.15970   0.00091 
C     0.73456   0.20540   0.00082 
C     0.12554   0.57307   0.00009 
H     0.08884   0.54015  -0.00023 
C     0.20746   0.65985   0.00095 
C     0.23452   0.70551   0.00107 
C     0.37378   0.92650   0.00002 
H     0.41020   0.95945   0.00008 
C     0.29283   0.83965  -0.00018 
C     0.26671   0.79397  -0.00009 
C     0.87126   0.42645  -0.00005 
H     0.90735   0.45940   0.00021 
C     0.79121   0.33956  -0.00064 
C     0.76511   0.29386  -0.00062 
C     0.37499   0.07313   0.50046 
H     0.41121   0.04018   0.50031 
C     0.29380   0.16004   0.50080 
C     0.26703   0.20574   0.50064 
C     0.87530   0.57302   0.49970 
H     0.91141   0.54004   0.49966 
C     0.79452   0.65998   0.49982 
C     0.76784   0.70571   0.49977 
C     0.62466   0.92690   0.50032 
H     0.58830   0.95985   0.50035 
C     0.70560   0.83996   0.50025 
C     0.73254   0.79425   0.50031 
C     0.12403   0.42682   0.49955 
H     0.08779   0.45979   0.49975 
C     0.20580   0.33994   0.49907 
C     0.23305   0.29424   0.49917 
